/*--------------------------------*- C++ -*----------------------------------*\
| =========                 |                                                 |
| \\      /  F ield         | foam-extend: Open Source CFD                    |
|  \\    /   O peration     | Version:     4.0                                |
|   \\  /    A nd           | Web:         http://www.foam-extend.org         |
|    \\/     M anipulation  |                                                 |
\*---------------------------------------------------------------------------*/
FoamFile
{
    version     2.0;
    format      ascii;
    class       dictionary;
    location    "constant";
    object      beamProperties;
}
// * * * * * * * * * * * * * * * * * * * * * * * * * * * * * * * * * * * * * //

beams
(
    beam_0
    {
    
        crossSectionModel circle;

        circleCrossSectionModelDict
        {
            radius 0.65; //mm
        }

        length 100; // mm
        nSegments 20;
     
    // 	crossSectionModel rectangle;
     	
    // 	rectangleCrossSectionModelDict
    // 	{
    // 		b 0.01;//0.2;
   //  		h 0.2;//0.01;
   //  		nx 4;
    // 		ny 4;
   //  	}
     	
   //  	length 1;
   //  	nSegments 100;
    }
);


beamModel coupledTotalLagNewtonRaphsonBeam;

// nBeams 1;
// R R [0 1 0 0 0 0 0] 0.1; //0.05;
// L L [0 1 0 0 0 0 0] 20;
// nSegments 50;

"coupledTotalLagNewtonRaphsonBeamCoeffs"
{
    E E [1 -1 -2 0 0 0 0] 2.512e8; //2.1e11;//1.310861423e14;//2.1e11; //200e6;
    G G [1 -1 -2 0 0 0 0] 1.22e8; //8.076923e10; //100e6; // nu=0
    
    startPatchName left;
    endPatchName right;

    nCorrectors 1000;
    convergenceTol 1e-6;

    debug no;
    updatedLagrangian no;
}

// ************************************************************************* //
