/*--------------------------------*- C++ -*----------------------------------*\
| =========                 |                                                 |
| \\      /  F ield         | foam-extend: Open Source CFD                    |
|  \\    /   O peration     | Version:     4.0                                |
|   \\  /    A nd           | Web:         http://www.foam-extend.org         |
|    \\/     M anipulation  |                                                 |
\*---------------------------------------------------------------------------*/
FoamFile
{
    version     2.0;
    format      ascii;
    class       dictionary;
    location    "constant";
    object      beamProperties;
}
// * * * * * * * * * * * * * * * * * * * * * * * * * * * * * * * * * * * * * //

beamModel coupledTotalLagNewtonRaphsonBeam;

nBeams 1;
R R [0 1 0 0 0 0 0] 0.564189584; //0.570732; //0.5642; //0.570732; //unit square equivalent
L L [0 1 0 0 0 0 0] 375.24579;//104.71975;//453.7856;//209.4395;//314.159;//375.24579; //78.54;
nSegments 41;

"coupledTotalLagNewtonRaphsonBeamCoeffs"
{
    E E [1 -1 -2 0 0 0 0] 1.2566371e5;
    G G [1 -1 -2 0 0 0 0] 0.6283185e5; // nu=0
    
    startPatchName left;
    endPatchName right;

    nCorrectors 200;
    convergenceTol 1e-6;

    debug yes;
    updatedLagrangian no;
    
    objectiveInterpolation true;
}

// ************************************************************************* //
