/*--------------------------------*- C++ -*----------------------------------*\
| =========                 |                                                 |
| \\      /  F ield         | foam-extend: Open Source CFD                    |
|  \\    /   O peration     | Version:     4.0                                |
|   \\  /    A nd           | Web:         http://www.foam-extend.org         |
|    \\/     M anipulation  |                                                 |
\*---------------------------------------------------------------------------*/
FoamFile
{
    version     2.0;
    format      ascii;
    class       dictionary;
    location    "constant";
    object      beamProperties;
}
// * * * * * * * * * * * * * * * * * * * * * * * * * * * * * * * * * * * * * //


beams
(
    beam_0
    {
        crossSectionModel rectangle;

        rectangleCrossSectionModelDict
        {
            b 5; //mm
            h 0.9; //mm

            nx 1;
            ny 50;
        }

        length 800; // mm
        nSegments 800;
    }
);


nBeams 1;
R R [0 1 0 0 0 0 0] 0.45; // mm;
L L [0 1 0 0 0 0 0] 800; // mm
nSegments 800;


beamModel coupledTotalLagNewtonRaphsonBeam;

"coupledTotalLagNewtonRaphsonBeamCoeffs"
{
    E E [1 -1 -2 0 0 0 0] 177e6;
    G G [1 -1 -2 0 0 0 0] 68.07e6; // nu=0.3
    // G G [1 -1 -2 0 0 0 0] 88.5e6; // nu=0

    plasticityModel linearElasticMisesPlastic;
    linearElasticMisesPlasticCoeffs
    {
        sigmaY0 sigmaY0 [1 -1 -2 0 0 0 0] 1.57e6;
        HP EP [1 -1 -2 0 0 0 0] 0;

        elPredTol 1e-6;

        writeFaceIDs 1( 400 );
    }

    startPatchName left;
    endPatchName right;

    nCorrectors 2000;
    convergenceTol 1e-12;

    debug no;
    updatedLagrangian no;
    
    deltaTseries
    {
        fileName "$FOAM_CASE/constant/timeVsDeltaT";
        outOfBounds clamp;
    }
}


toroidalPulleys
(    
    // First row
    pulley_0
    {
        origin (0 0 0);
        axis (0 0 1);
        polarAxis (1 0 0);
        rMin 15;
        rToroidalSurf 150000;
        width 20;
        rotDir -1;
    }
    
    pulley_1
    {
        origin (32 0 0);
        axis (0 0 1);
        polarAxis (1 0 0);
        rMin 15;
        rToroidalSurf 150000;
        width 20;
        rotDir -1;
    }
    
    pulley_2
    {
        origin (64 0 0);
        axis (0 0 1);
        polarAxis (1 0 0);
        rMin 15;
        rToroidalSurf 150000;
        width 20;
        rotDir -1;
    }

    pulley_3
    {
        origin (96 0 0);
        axis (0 0 1);
        polarAxis (1 0 0);
        rMin 15;
        rToroidalSurf 150000;
        width 20;
        rotDir -1;
    }

    pulley_4
    {
        origin (128 0 0);
        axis (0 0 1);
        polarAxis (1 0 0);
        rMin 15;
        rToroidalSurf 150000;
        width 20;
        rotDir -1;
    }

    pulley_5
    {
        origin (160 0 0);
        axis (0 0 1);
        polarAxis (1 0 0);
        rMin 15;
        rToroidalSurf 150000;
        width 20;
        rotDir -1;
    }

    pulley_6
    {
        origin (192 0 0);
        axis (0 0 1);
        polarAxis (1 0 0);
        rMin 15;
        rToroidalSurf 150000;
        width 20;
        rotDir -1;
    }

    pulley_7
    {
        origin (224 0 0);
        axis (0 0 1);
        polarAxis (1 0 0);
        rMin 15;
        rToroidalSurf 150000;
        width 20;
        rotDir -1;
    }

    pulley_8
    {
        origin (256 0 0);
        axis (0 0 1);
        polarAxis (1 0 0);
        rMin 15;
        rToroidalSurf 150000;
        width 20;
        rotDir -1;
    }

    pulley_9
    {
        origin (288 0 0);
        axis (0 0 1);
        polarAxis (1 0 0);
        rMin 15;
        rToroidalSurf 150000;
        width 20;
        rotDir -1;
    }

    pulley_10
    {
        origin (320 0 0);
        axis (0 0 1);
        polarAxis (1 0 0);
        rMin 15;
        rToroidalSurf 150000;
        width 20;
        rotDir -1;
    }

    // Second row
    pulley_11
    {
        origin (0 0 0);
        originShift (16 31 0);
        axis (0 0 1);
        polarAxis (1 0 0);
        rMin 15;
        rToroidalSurf 150000;
        width 20;
        rotDir -1;
        
        originDisplacementSeries
        {
            fileName "$FOAM_CASE/constant/timeVsPulleyDisplacement11";
            outOfBounds clamp;
        }

        stlFileName "constant/toroidalPulleys/toroidalPulley_11.stl";
    }

    pulley_12
    {
        origin (32 0 0);
        originShift (16 31 0);
        axis (0 0 1);
        polarAxis (1 0 0);
        rMin 15;
        rToroidalSurf 150000;
        width 20;
        rotDir -1;
        
        originDisplacementSeries
        {
            fileName "$FOAM_CASE/constant/timeVsPulleyDisplacement12";
            outOfBounds clamp;
        }

        stlFileName "constant/toroidalPulleys/toroidalPulley_12.stl";
    }

    pulley_13
    {
        origin (64 0 0);
        originShift (16 31 0);
        axis (0 0 1);
        polarAxis (1 0 0);
        rMin 15;
        rToroidalSurf 150000;
        width 20;
        rotDir -1;
        
        originDisplacementSeries
        {
            fileName "$FOAM_CASE/constant/timeVsPulleyDisplacement13";
            outOfBounds clamp;
        }

        stlFileName "constant/toroidalPulleys/toroidalPulley_13.stl";
    }

    pulley_14
    {
        origin (96 0 0);
        originShift (16 31 0);
        axis (0 0 1);
        polarAxis (1 0 0);
        rMin 15;
        rToroidalSurf 150000;
        width 20;
        rotDir -1;
        
        originDisplacementSeries
        {
            fileName "$FOAM_CASE/constant/timeVsPulleyDisplacement14";
            outOfBounds clamp;
        }

        stlFileName "constant/toroidalPulleys/toroidalPulley_14.stl";
    }
    
    pulley_15
    {
        origin (128 0 0);
        originShift (16 31 0);
        axis (0 0 1);
        polarAxis (1 0 0);
        rMin 15;
        rToroidalSurf 150000;
        width 20;
        rotDir -1;
        
        originDisplacementSeries
        {
            fileName "$FOAM_CASE/constant/timeVsPulleyDisplacement15";
            outOfBounds clamp;
        }

        stlFileName "constant/toroidalPulleys/toroidalPulley_15.stl";
    }
    
    pulley_16
    {
        origin (160 0 0);
        originShift (16 31 0);
        axis (0 0 1);
        polarAxis (1 0 0);
        rMin 15;
        rToroidalSurf 150000;
        width 20;
        rotDir -1;
        
        originDisplacementSeries
        {
            fileName "$FOAM_CASE/constant/timeVsPulleyDisplacement16";
            outOfBounds clamp;
        }

        stlFileName "constant/toroidalPulleys/toroidalPulley_16.stl";
    }
    
    pulley_17
    {
        origin (192 0 0);
        originShift (16 31 0);
        axis (0 0 1);
        polarAxis (1 0 0);
        rMin 15;
        rToroidalSurf 150000;
        width 20;
        rotDir -1;
        
        originDisplacementSeries
        {
            fileName "$FOAM_CASE/constant/timeVsPulleyDisplacement17";
            outOfBounds clamp;
        }

        stlFileName "constant/toroidalPulleys/toroidalPulley_17.stl";
    }
    
    pulley_18
    {
        origin (224 0 0);
        originShift (16 31 0);
        axis (0 0 1);
        polarAxis (1 0 0);
        rMin 15;
        rToroidalSurf 150000;
        width 20;
        rotDir -1;
        
        originDisplacementSeries
        {
            fileName "$FOAM_CASE/constant/timeVsPulleyDisplacement18";
            outOfBounds clamp;
        }

        stlFileName "constant/toroidalPulleys/toroidalPulley_18.stl";
    }
    
    pulley_19
    {
        origin (256 0 0);
        originShift (16 31 0);
        axis (0 0 1);
        polarAxis (1 0 0);
        rMin 15;
        rToroidalSurf 150000;
        width 20;
        rotDir -1;
        
        originDisplacementSeries
        {
            fileName "$FOAM_CASE/constant/timeVsPulleyDisplacement19";
            outOfBounds clamp;
        }

        stlFileName "constant/toroidalPulleys/toroidalPulley_19.stl";
    }
    
    pulley_20
    {
        origin (288 0 0);
        originShift (16 31 0);
        axis (0 0 1);
        polarAxis (1 0 0);
        rMin 15;
        rToroidalSurf 150000;
        width 20;
        rotDir -1;
        
        originDisplacementSeries
        {
            fileName "$FOAM_CASE/constant/timeVsPulleyDisplacement20";
            outOfBounds clamp;
        }

        stlFileName "constant/toroidalPulleys/toroidalPulley_20.stl";
    }
);


// ************************************************************************* //
