/*--------------------------------*- C++ -*----------------------------------*\
| =========                 |                                                 |
| \\      /  F ield         | foam-extend: Open Source CFD                    |
|  \\    /   O peration     | Version:     4.0                                |
|   \\  /    A nd           | Web:         http://www.foam-extend.org         |
|    \\/     M anipulation  |                                                 |
\*---------------------------------------------------------------------------*/
FoamFile
{
    version     2.0;
    format      ascii;
    class       dictionary;
    location    "constant";
    object      beamProperties;
}
// * * * * * * * * * * * * * * * * * * * * * * * * * * * * * * * * * * * * * //

beamModel coupledTotalLagNewtonRaphsonBeam;

nBeams 7;
R R [0 1 0 0 0 0 0] 0.01; //0.05;
L L [0 1 0 0 0 0 0] 5;
nSegments 100;

coupledTotalLagNewtonRaphsonBeamCoeffs
{
    E E [1 -1 -2 0 0 0 0] 1.0e9;
    G G [1 -1 -2 0 0 0 0] 0.5e9; // nu=0
    
    startPatchName left;
    endPatchName right;

    nCorrectors 200;
    convergenceTol 1e-9;
    // relConvergenceTol 1e-6;

    debug no;

    updatedLagrangian yes;
}

// ************************************************************************* //
