/*--------------------------------*- C++ -*----------------------------------*\
| =========                 |                                                 |
| \\      /  F ield         | foam-extend: Open Source CFD                    |
|  \\    /   O peration     | Version:     4.0                                |
|   \\  /    A nd           | Web:         http://www.foam-extend.org         |
|    \\/     M anipulation  |                                                 |
\*---------------------------------------------------------------------------*/
FoamFile
{
    version     2.0;
    format      ascii;
    class       dictionary;
    location    "constant";
    object      beamsBunchingProperties;
}
// * * * * * * * * * * * * * * * * * * * * * * * * * * * * * * * * * * * * * //
pointContact     // Not being used in this test case
{
    normalContactModel regularizedStandardPenalty;
    regularizedStandardPenaltyNormalModelDict
    {
	epsilon 1e4; // Dim of E
	gBar 0.001;
    }
    
    frictionContactModel standardPenalty;
    standardPenaltyFrictionModelDict
    {} // frictionless
}


lineContact
{
    normalContactModel regularizedStandardPenalty;
    regularizedStandardPenaltyNormalModelDict
    {
	epsilon 5e4; // Dim of E
	gBar 0.001;
    }
    
    frictionContactModel standardPenalty;
    standardPenaltyFrictionModelDict
    {} // frictionless
}


// ************************************************************************* //
