/*--------------------------------*- C++ -*----------------------------------*\
| =========                 |                                                 |
| \\      /  F ield         | foam-extend: Open Source CFD                    |
|  \\    /   O peration     | Version:     4.0                                |
|   \\  /    A nd           | Web:         http://www.foam-extend.org         |
|    \\/     M anipulation  |                                                 |
\*---------------------------------------------------------------------------*/
FoamFile
{
    version     2.0;
    format      ascii;
    class       dictionary;
    location    "constant";
    object      beamsBunchingProperties;
}
// * * * * * * * * * * * * * * * * * * * * * * * * * * * * * * * * * * * * * //

augmentedLagrangian false;

// normalContactModel lagrangeMultipliers;
// lagrangeMultipliersNormalModelDict
// {
//     epsilon 500000; // Dim of E
// }

// normalContactModel standardPenalty;
// standardPenaltyNormalModelDict
// {
//     epsilon 500000; // Dim of E
// }

normalContactModel regularizedStandardPenalty;
regularizedStandardPenaltyNormalModelDict
{
    epsilon 400000; // Dim of E
    gBar 0.001; //0.001;
}

frictionContactModel stabilisedPenalty;
stabilisedPenaltyFrictionModelDict
{
    epsilon 2000000;
    epsilonRot 2000000;
    frictionCoeff 0.5; //0.5;
    gCoeff 0.2;
}

// ************************************************************************* //
