/*--------------------------------*- C++ -*----------------------------------*\
| =========                 |                                                 |
| \\      /  F ield         | foam-extend: Open Source CFD                    |
|  \\    /   O peration     | Version:     4.0                                |
|   \\  /    A nd           | Web:         http://www.foam-extend.org         |
|    \\/     M anipulation  |                                                 |
\*---------------------------------------------------------------------------*/
FoamFile
{
    version     2.0;
    format      ascii;
    class       dictionary;
    object      fvSolution;
}
// * * * * * * * * * * * * * * * * * * * * * * * * * * * * * * * * * * * * * //

solvers
{
    "DWDTheta_|WTheta_"
    {
        solver Eigen; //Eigen; //MklClusterPardiso;
    };
    
    "DWDTheta|WTheta"
    {
        solver Eigen; //BlockPetsc;
/*
        petsc
        {
            useBlockMatrix false;

            options
            {
                ksp_type preonly;
                pc_type lu;
                pc_factor_mat_solver_type mkl_cpardiso; //mumps; //mkl_cpardiso;

                // sub_pc_type  ilu; //icc;
                // ksp_cg_single_reduction true;

                // when using OpenFOAM's L1 based criterion,
                // we can save some work
                // comment the line below if not using cg
                // (or one of its variants)
                // ksp_norm_type none;
                
                // uncomment the line below to obtain
                // a textbook CG with use_petsc_residual_norm == true
                // ksp_norm_type natural;
                // mat_type  mpiaij;
            }

            // use petsc default convergence testing instead of
            // OpenFOAM's L1 based criterion
            // default is false
            use_petsc_residual_norm true;
            // monitor (print to stdout) residual reduction in OpenFOAM norm
            // default is false
            monitor_foam_residual_norm false;

            caching
            {
                matrix
                {
                    update always;
                }

                preconditioner
                {
                    update always;
                }
            }
        }
*/
        tolerance       1e-9;
        relTol          1e-1;
        minIter         1;
        maxIter         1000;
    };
}

relaxationFactors
{
    euqations
    {
        // U 0.99;
    }
    fields
    {
        DTheta 0.05;
        DLambda 0.05;
        
        stretchRatio 0.05;

        Theta 0.05;
        Lambda 0.05;
    }
}


// ************************************************************************* //
