/*--------------------------------*- C++ -*----------------------------------*\
| =========                 |                                                 |
| \\      /  F ield         | foam-extend: Open Source CFD                    |
|  \\    /   O peration     | Version:     4.0                                |
|   \\  /    A nd           | Web:         http://www.foam-extend.org         |
|    \\/     M anipulation  |                                                 |
\*---------------------------------------------------------------------------*/
FoamFile
{
    version     2.0;
    format      ascii;
    class       dictionary;
    location    "constant";
    object      beamProperties;
}
// * * * * * * * * * * * * * * * * * * * * * * * * * * * * * * * * * * * * * //

beamModel coupledTotalLagNewtonRaphsonBeam;

R R [0 1 0 0 0 0 0] 0.65; // mm;
L L [0 1 0 0 0 0 0] 4000; // mm
nSegments 3000;
nBeams 1;

"coupledTotalLagNewtonRaphsonBeamCoeffs"
{
    E E [1 -1 -2 0 0 0 0] 200e6;
    G G [1 -1 -2 0 0 0 0] 100e6; // nu=0

    plasticityModel axialForce3dBending;
    axialForce3dBendingCoeffs
    {
        sigmaY0 sigmaY0 [1 -1 -2 0 0 0 0] 2.25e6;
        Ep Ep [1 -1 -2 0 0 0 0] 0;

        nElPredCorr 20;
        elPredTol 1e-4;
    }

    startPatchName left;
    endPatchName right;

    nCorrectors 200;
    convergenceTol 1e-10;

    debug yes;
    updatedLagrangian no;
}

conicalPulleys
(    
    // First set
    pulley_1
    {
        origin (0 0 0);
        axis (0 0 1);
        polarAxis (1 0 0);
        rMin 18;
        angle 45;
        width 10;
        rotDir -1;
    }
    pulley_2
    {
        origin (50 25 0);
        axis (0 0 1);
        polarAxis (1 0 0);
        rMin 19.5;
        angle 45;
        width 10;
        rotDir 1;
    }
    pulley_3
    {
        origin (105 -10 0);
        axis (0 0 1);
        polarAxis (1 0 0);
        rMin 25.5;
        angle 45;
        width 10;
        rotDir -1;
    }
    pulley_4
    {
        origin (170 45 0);
        axis (0 0 1);
        polarAxis (1 0 0);
        rMin 32.5;
        angle 45;
        width 12;
        rotDir 1;
    }
    pulley_5
    {
        origin (175 145 0);
        axis (0 0 1);
        polarAxis (1 0 0);
        rMin 42.5;
        angle 45;
        width 12;
        rotDir -1;
    }
    pulley_6
    {
        origin (265 80 0);
        axis (0 0 1);
        polarAxis (1 0 0);
        rMin 47.5;
        angle 45;
        width 12;
        rotDir 1;
    }
    pulley_7
    {
        origin (280 200 0);
        axis (0 0 1);
        polarAxis (1 0 0);
        rMin 50;
        angle 45;
        width 12;
        rotDir -1;
    }
    pulley_8
    {
        origin (425 110 0);
        axis (0 0 1);
        polarAxis (1 0 0);
        rMin 95;
        angle 45;
        width 12;
        rotDir 1;
    }
    
    // Second set
    pulley_9
    {
        origin (0 0 0);
        originShift (550 15 18);
        axis (0 1 0);
        polarAxis (1 0 0);
        rMin 18;
        angle 45;
        width 10;
        rotDir -1;
    }
    pulley_10
    {
        origin (50 0 -25);
        originShift (550 15 18);
        axis (0 1 0);
        polarAxis (1 0 0);
        rMin 19.5;
        angle 45;
        width 10;
        rotDir 1;
    }
    pulley_11
    {
        origin (105 0 10);
        originShift (550 15 18);
        axis (0 1 0);
        polarAxis (1 0 0);
        rMin 25.5;
        angle 45;
        width 10;
        rotDir -1;
    }
    pulley_12
    {
        origin (170 0 -45);
        originShift (550 15 18);
        axis (0 1 0);
        polarAxis (1 0 0);
        rMin 32.5;
        angle 45;
        width 12;
        rotDir 1;
    }
    pulley_13
    {
        origin (175 0 -145);
        originShift (550 15 18);
        axis (0 1 0);
        polarAxis (1 0 0);
        rMin 42.5;
        angle 45;
        width 12;
        rotDir -1;
    }
    pulley_14
    {
        origin (265 0 -80);
        originShift (550 15 18);
        axis (0 1 0);
        polarAxis (1 0 0);
        rMin 47.5;
        angle 45;
        width 12;
        rotDir 1;
    }
    pulley_15
    {
        origin (280 0 -200);
        originShift (550 15 18);
        axis (0 1 0);
        polarAxis (1 0 0);
        rMin 50;
        angle 45;
        width 12;
        rotDir -1;
    }
    pulley_16
    {
        origin (425 0 -110);
        originShift (550 15 18);
        axis (0 1 0);
        polarAxis (1 0 0);
        rMin 95;
        angle 45;
        width 12;
        rotDir 1;
    }
);

// ************************************************************************* //
