/*--------------------------------*- C++ -*----------------------------------*\
| =========                 |                                                 |
| \\      /  F ield         | foam-extend: Open Source CFD                    |
|  \\    /   O peration     | Version:     4.0                                |
|   \\  /    A nd           | Web:         http://www.foam-extend.org         |
|    \\/     M anipulation  |                                                 |
\*---------------------------------------------------------------------------*/
FoamFile
{
    version     2.0;
    format      ascii;
    class       dictionary;
    object      fvSolution;
}
// * * * * * * * * * * * * * * * * * * * * * * * * * * * * * * * * * * * * * //

solvers
{
    DWDTheta
    {
        // solver EigenSparseLU;
        // writeMatlabFiles true;
        
        solver BiCGStab;

        preconditioner  Cholesky;
        tolerance       1e-8;
        relTol          0;
        minIter         1;
        maxIter         1000;
    };
}

relaxationFactors
{
    euqations
    {
        // U 0.99;
    }
    fields
    {
        DW 1;
        DTheta 1;
        // Q 0.5;
    }
}


// ************************************************************************* //
