/*--------------------------------*- C++ -*----------------------------------*\
| =========                 |                                                 |
| \\      /  F ield         | foam-extend: Open Source CFD                    |
|  \\    /   O peration     | Version:     4.0                                |
|   \\  /    A nd           | Web:         http://www.foam-extend.org         |
|    \\/     M anipulation  |                                                 |
\*---------------------------------------------------------------------------*/
FoamFile
{
    version     2.0;
    format      ascii;
    class       dictionary;
    location    "constant";
    object      beamProperties;
}
// * * * * * * * * * * * * * * * * * * * * * * * * * * * * * * * * * * * * * //

beams
(
    beam_0
    {
        crossSectionModel rectangle;

        rectangleCrossSectionModelDict
        {
            b 7; //mm
            h 2; //mm

            nx 4;
            ny 20;
        }

        length 200; // mm
        nSegments 200;
    }
);

beamModel coupledTotalLagNewtonRaphsonBeam;

// R R [0 1 0 0 0 0 0] 0.5; // mm;
// L L [0 1 0 0 0 0 0] 200; // mm
// nSegments 200;
// nBeams 1;

"coupledTotalLagNewtonRaphsonBeamCoeffs"
{
    E E [1 -1 -2 0 0 0 0] 200e6;
    G G [1 -1 -2 0 0 0 0] 100e6; // nu=0

    plasticityModel linearElasticMisesPlastic;
    linearElasticMisesPlasticCoeffs
    {
        sigmaY0 sigmaY0 [1 -1 -2 0 0 0 0] 1.65e6; //1.65e6;
        HP EP [1 -1 -2 0 0 0 0] 0;

        elPredTol 1e-6;

        writeFaceIDs 1(0);
    }
    
    startPatchName left;
    endPatchName right;

    nCorrectors 2000;
    convergenceTol 1e-12;

    debug no;
    updatedLagrangian no;
}

// ************************************************************************* //
