/*--------------------------------*- C++ -*----------------------------------*\
| =========                 |                                                 |
| \\      /  F ield         | foam-extend: Open Source CFD                    |
|  \\    /   O peration     | Version:     4.0                                |
|   \\  /    A nd           | Web:         http://www.foam-extend.org         |
|    \\/     M anipulation  |                                                 |
\*---------------------------------------------------------------------------*/
FoamFile
{
    version     2.0;
    format      ascii;
    class       dictionary;
    location    "constant";
    object      beamProperties;
}
// * * * * * * * * * * * * * * * * * * * * * * * * * * * * * * * * * * * * * //

// beamModel coupledTotalLagIncrBeam;
beamModel coupledTotalLagCurvedBeam;
// beamModel coupledUpdatedLagBeam;

R R [0 1 0 0 0 0 0] 0.570732; //unit square equivalent
L L [0 1 0 0 0 0 0] 150;
// L L [0 1 0 0 0 0 0] 78.54;
nSegments 100;

"coupledTotalLagCurvedBeamCoeffs|coupledTotalLagIncrBeamCoeffs|coupledUpdatedLagBeamCoeffs"
{
    E E [1 -1 -2 0 0 0 0] 1.0e7;
    G G [1 -1 -2 0 0 0 0] 0.5e7; // nu=0
    
    startPatchName left;
    endPatchName right;

    nCorrectors 10000;
    convergenceTol 1e-9;

    updatedLagrangian yes;
}

// ************************************************************************* //
