/*--------------------------------*- C++ -*----------------------------------*\
| =========                 |                                                 |
| \\      /  F ield         | foam-extend: Open Source CFD                    |
|  \\    /   O peration     | Version:     4.0                                |
|   \\  /    A nd           | Web:         http://www.foam-extend.org         |
|    \\/     M anipulation  |                                                 |
\*---------------------------------------------------------------------------*/
FoamFile
{
    version     2.0;
    format      ascii;
    class       dictionary;
    location    "constant";
    object      beamsBunchingProperties;
}
// * * * * * * * * * * * * * * * * * * * * * * * * * * * * * * * * * * * * * //

normalContactModel standardPenalty;
standardPenaltyNormalModelDict
{
    epsilon 4000; // Set to 10 for agumentedLagrangian
 //   gbar 0.001;
}

frictionContactModel standardPenalty;
standardPenaltyFrictionModelDict
{} //frictionless

agumentedLagrangian	false;
reusePrevPointContacts		false;

// debug yes;

// ************************************************************************* //
