/*--------------------------------*- C++ -*----------------------------------*\
| =========                 |                                                 |
| \\      /  F ield         | OpenFOAM: The Open Source CFD Toolbox           |
|  \\    /   O peration     | Version:  2312                                  |
|   \\  /    A nd           | Website:  www.openfoam.com                      |
|    \\/     M anipulation  |                                                 |
\*---------------------------------------------------------------------------*/
// * * * * * * * * * * * * * * * * * * * * * * * * * * * * * * * * * * * * * //
FoamFile
{
    version         2;
    format          ascii;
    class           dictionary;
    location        "system";
    object          controlDict;
}

application     interFoam;

startFrom       startTime;

startTime       0;

stopAt          endTime;

endTime         0.02;

deltaT          0.01;

writeControl    adjustableRunTime;

writeInterval   0.01;

purgeWrite      0;

writeFormat     ascii;

writePrecision  10;

writeCompression off;

timeFormat      general;

timePrecision   6;

runTimeModifiable yes;

adjustTimeStep  yes;

maxCo           0.3;

maxAlphaCo      0.3;

maxDeltaT       0.1;

functions
{
    sixDoF_History
    {
        type            sixDoFRigidBodyStateFvBeam;
        libs            ( "libsixDoFRigidBodyStateFvBeam.so" );
        angleFormat     radians;
        writeControl    runTime;
        writeInterval   0.01;
    }
}


// ************************************************************************* //
