/*--------------------------------*- C++ -*----------------------------------*\
| =========                 |                                                 |
| \\      /  F ield         | foam-extend: Open Source CFD                    |
|  \\    /   O peration     | Version:     4.0                                |
|   \\  /    A nd           | Web:         http://www.foam-extend.org         |
|    \\/     M anipulation  |                                                 |
\*---------------------------------------------------------------------------*/
FoamFile
{
    version     2.0;
    format      ascii;
    class       volVectorField;
    object      W;
}
// * * * * * * * * * * * * * * * * * * * * * * * * * * * * * * * * * * * * * //

dimensions      [0 1 0 0 0 0 0];

internalField   uniform (0 0 0);

boundaryField
{
    left
    {
        type fixedValue;
        value uniform (0 0 0);
    }

    // right
    // {
    //     type fixedValue;
    //     value uniform (-0.62318 3.20898 3.20898);
    // }

    right
    {
        type axialForceTransverseDisplacementNR;
        refDispSeries
        {
            fileName        "$FOAM_CASE/constant/timeVsDisplacement";
            outOfBounds     clamp;
        }
        // refDisp uniform (-0.0122847 0.452817 0.452817);
        axialForce uniform 554.981;
    }

    // right
    // {
    //     type forceBeamDisplacementNR;
    //     forceSeries
    //     {
    //         fileName        "$FOAM_CASE/constant/timeVsForce";
    //         outOfBounds     clamp;
    //     }
    // }

    // right
    // {
    //     type fixedDisplacement;
    //     value uniform (0 0 0);
    //     displacementSeries
    //     {
    //         fileName        "$FOAM_CASE/constant/timeVsDisplacement";
    //         outOfBounds     clamp;
    //     }
    // }

    
    frontAndBack
    {
        type empty;
    }

    topAndBottom
    {
        type empty;
    }
}


// ************************************************************************* //
