/*--------------------------------*- C++ -*----------------------------------*\
| =========                 |                                                 |
| \\      /  F ield         | foam-extend: Open Source CFD                    |
|  \\    /   O peration     | Version:     4.0                                |
|   \\  /    A nd           | Web:         http://www.foam-extend.org         |
|    \\/     M anipulation  |                                                 |
\*---------------------------------------------------------------------------*/
FoamFile
{
    version     2.0;
    format      ascii;
    class       dictionary;
    location    "constant";
    object      beamProperties;
}
// * * * * * * * * * * * * * * * * * * * * * * * * * * * * * * * * * * * * * //

beamModel coupledTotalLagNewtonRaphsonBeam;

R R [0 1 0 0 0 0 0] 0.5; // mm;
L L [0 1 0 0 0 0 0] 500; // mm
nSegments 250;
nBeams 1;

"coupledTotalLagNewtonRaphsonBeamCoeffs"
{
    E E [1 -1 -2 0 0 0 0] 200e6;
    G G [1 -1 -2 0 0 0 0] 100e6; // nu=0

    plasticityModel axialForce3dBending;
    axialForce3dBendingCoeffs
    {
        sigmaY0 sigmaY0 [1 -1 -2 0 0 0 0] 2.25e6;
        Ep Ep [1 -1 -2 0 0 0 0] 0; //2.25e5;
    }
    
    startPatchName left;
    endPatchName right;

    nCorrectors 2000;
    convergenceTol 1e-11;

    debug no;
    updatedLagrangian no;
}

// ************************************************************************* //
