/*--------------------------------*- C++ -*----------------------------------*\
| =========                 |                                                 |
| \\      /  F ield         | foam-extend: Open Source CFD                    |
|  \\    /   O peration     | Version:     4.0                                |
|   \\  /    A nd           | Web:         http://www.foam-extend.org         |
|    \\/     M anipulation  |                                                 |
\*---------------------------------------------------------------------------*/
FoamFile
{
    version     2.0;
    format      ascii;
    class       dictionary;
    object      controlDict;
}
// * * * * * * * * * * * * * * * * * * * * * * * * * * * * * * * * * * * * * //

application     beamFoam;

startFrom       startTime;

startTime       0;

stopAt          endTime;

endTime         5; //1;

deltaT          0.005; //0.025;

writeControl    timeStep;

writeInterval   1; //2;

purgeWrite      0;

writeFormat     ascii;

writePrecision  6;

writeCompression uncompressed;

timeFormat      general;

timePrecision   6;

runTimeModifiable yes;

//   libs
//   (
    //   "libblockMklClusterParadisoSolver.so"
    //   "libblockPetscSolver.so"
    //   "libpetscFoam.so"
//   );

functions
{
   setEndPointsDisplacement
   {
       type setEndPointsDisplacement;
       functionObjectLibs ("libsetEndPointsDisplacement.so");
       startPatchName left_1;
       endPatchName right_1;
       yDisp -0.3;
       angle 360; //1440; //720; //360;
   }
}

// ************************************************************************* //
