/*--------------------------------*- C++ -*----------------------------------*\
| =========                 |                                                 |
| \\      /  F ield         | foam-extend: Open Source CFD                    |
|  \\    /   O peration     | Version:     4.0                                |
|   \\  /    A nd           | Web:         http://www.foam-extend.org         |
|    \\/     M anipulation  |                                                 |
\*---------------------------------------------------------------------------*/
FoamFile
{
    version     2.0;
    format      ascii;
    class       volVectorField;
    object      q;
}
// * * * * * * * * * * * * * * * * * * * * * * * * * * * * * * * * * * * * * //

dimensions      [1 0 -2 0 0 0 0];

// Two options to add self weight of beam:
// 1. Use q field  below - a uniform distributed load representing self-weight
// or 2. Use density and gravity - can be set in constant/

internalField   uniform (0 0 0); // (0 0 -0.758);


boundaryField
{
    right
    {
        type    calculated;
        value    uniform (0 0 0);
    }

    left
    {
        type    calculated;
        value    uniform (0 0 0);        
    }

    beam
    {
        type    empty;
    }
}


// ************************************************************************* //
