/*--------------------------------*- C++ -*----------------------------------*\
| =========                 |                                                 |
| \\      /  F ield         | foam-extend: Open Source CFD                    |
|  \\    /   O peration     | Version:     4.0                                |
|   \\  /    A nd           | Web:         http://www.foam-extend.org         |
|    \\/     M anipulation  |                                                 |
\*---------------------------------------------------------------------------*/
FoamFile
{
    version     2.0;
    format      ascii;
    class       dictionary;
    location    "constant";
    object      beamsBunchingProperties;
}
// * * * * * * * * * * * * * * * * * * * * * * * * * * * * * * * * * * * * * //

normalContactModel regularizedStandardPenalty;
regularizedStandardPenaltyNormalModelDict
{
    epsilon 1;//46845.28; // Dim of E
    gBar 0; //0.001;
}

frictionContactModel standardPenalty;
standardPenaltyFrictionModelDict
{} // frictionless

// ************************************************************************* //
