/*--------------------------------*- C++ -*----------------------------------*\
| =========                 |                                                 |
| \\      /  F ield         | foam-extend: Open Source CFD                    |
|  \\    /   O peration     | Version:     4.0                                |
|   \\  /    A nd           | Web:         http://www.foam-extend.org         |
|    \\/     M anipulation  |                                                 |
\*---------------------------------------------------------------------------*/
FoamFile
{
    version     2.0;
    format      ascii;
    class       dictionary;
    location    "constant";
    object      beamProperties;
}
// * * * * * * * * * * * * * * * * * * * * * * * * * * * * * * * * * * * * * //

beamModel coupledTotalLagNewtonRaphsonBeam;

nBeams 1;
R R [0 1 0 0 0 0 0] 0.1; //0.05;
L L [0 1 0 0 0 0 0] 20;
nSegments 200;

"coupledTotalLagNewtonRaphsonBeamCoeffs"
{
    E E [1 -1 -2 0 0 0 0] 200e6;
    G G [1 -1 -2 0 0 0 0] 100e6; // nu=0
    
    startPatchName left;
    endPatchName right;

    nCorrectors 30;
    convergenceTol 1e-11;    
    // relConvergenceTol 1e-6;

    updatedLagrangian true;

    objectiveInterpolation true;
}

// ************************************************************************* //
