/*--------------------------------*- C++ -*----------------------------------*\
| =========                 |                                                 |
| \\      /  F ield         | foam-extend: Open Source CFD                    |
|  \\    /   O peration     | Version:     4.0                                |
|   \\  /    A nd           | Web:         http://www.foam-extend.org         |
|    \\/     M anipulation  |                                                 |
\*---------------------------------------------------------------------------*/
FoamFile
{
    version     2.0;
    format      ascii;
    class       dictionary;
    location    "constant";
    object      beamsBunchingProperties;
}
// * * * * * * * * * * * * * * * * * * * * * * * * * * * * * * * * * * * * * //

lineContact
{
    normalContactModel standardPenalty;
    standardPenaltyNormalModelDict
    {
	epsilon 1000;
    }

    frictionContactModel standardPenalty;
    standardPenaltyFrictionModelDict
    {}
}


pointContact
{
    normalContactModel standardPenalty;
    standardPenaltyNormalModelDict
    {
	epsilon 4000;
    }

    frictionContactModel standardPenalty;
    standardPenaltyFrictionModelDict
    {}
}

agumentedLagrangian	false;
reusePrevPointContacts		false;

// debug yes;

// ************************************************************************* //
