/*--------------------------------*- C++ -*----------------------------------*\
| =========                 |                                                 |
| \\      /  F ield         | foam-extend: Open Source CFD                    |
|  \\    /   O peration     | Version:     4.0                                |
|   \\  /    A nd           | Web:         http://www.foam-extend.org         |
|    \\/     M anipulation  |                                                 |
\*---------------------------------------------------------------------------*/
FoamFile
{
    version     2.0;
    format      ascii;
    class       dictionary;
    location    "constant";
    object      beamsBunchingProperties;
}
// * * * * * * * * * * * * * * * * * * * * * * * * * * * * * * * * * * * * * //

normalContactModel standardPenalty;
standardPenaltyNormalModelDict
{
    epsilon 10000;
}

frictionContactModel regularizedStandardPenalty;
regularizedStandardPenaltyFrictionModelDict
{
    epsilon 2000;
    gBar 0.0001;
    frictionCoeff 1;
}

reusePrevPointContacts true;

// ************************************************************************* //
