/*--------------------------------*- C++ -*----------------------------------*\
| =========                 |                                                 |
| \\      /  F ield         | foam-extend: Open Source CFD                    |
|  \\    /   O peration     | Version:     4.0                                |
|   \\  /    A nd           | Web:         http://www.foam-extend.org         |
|    \\/     M anipulation  |                                                 |
\*---------------------------------------------------------------------------*/
FoamFile
{
    version     2.0;
    format      ascii;
    class       dictionary;
    location    "constant";
    object      beamProperties;
}
// * * * * * * * * * * * * * * * * * * * * * * * * * * * * * * * * * * * * * //

beams
(
    beam_0
    {
        crossSectionModel polyline;

        polylineCrossSectionModelDict
        {
            polyLinePoints
            32
            (
                ( -0.020729684908789 -1.82065715647805 0 )
                ( 0.443615257048093 -1.81260161110907 0 )
                ( 0.84162520729685 -1.76778882002763 0 )
                ( 1.14013266998342 -1.64204163457895 0 )
                ( 1.42205638474295 -1.42786680846382 0 )
                ( 1.62106135986733 -1.14010414756683 0 )
                ( 1.81177446102819 -0.837611695820651 0 )
                ( 1.94444444444444 -0.535204811324214 0 )
                ( 1.99419568822554 -0.210807143642965 0 )
                ( 1.94444444444444 0.128185852066449 0 )
                ( 1.80348258706468 0.422818340728788 0 )
                ( 1.62106135986733 0.724760717298031 0 )
                ( 1.42205638474295 1.02667864608163 0 )
                ( 1.1318407960199 1.23263901622111 0 )
                ( 0.84162520729685 1.3575183052795 0 )
                ( 0.435323383084577 1.40114537875732 0 )
                ( -0.012437810945273 1.40048528854499 0 )
                ( -0.46849087893864 1.39981297443984 0 )
                ( -0.866500829187396 1.35500018335839 0 )
                ( -1.17330016583748 1.22186976664589 0 )
                ( -1.4469320066335 1.0224491791656 0 )
                ( -1.64593698175788 0.719944503526593 0 )
                ( -1.82835820895522 0.417464275673231 0 )
                ( -1.96932006633499 0.12241617465498 0 )
                ( -2.01907131011609 -0.216723507768285 0 )
                ( -1.96932006633499 -0.555716503477698 0 )
                ( -1.83665008291874 -0.842990208661851 0 )
                ( -1.63764510779436 -1.14490813744545 0 )
                ( -1.4469320066335 -1.43209627537986 0 )
                ( -1.15671641791045 -1.65279866026135 0 )
                ( -0.866500829187396 -1.77767794931974 0 )
                ( -0.460199004975124 -1.81393401542655 0 )
            );
        }

        length 200; // mm
        nSegments 200;
    }
);

beamModel coupledTotalLagNewtonRaphsonBeam;

// R R [0 1 0 0 0 0 0] 0.5; // mm;
// L L [0 1 0 0 0 0 0] 200; // mm
// nSegments 200;
// nBeams 1;

"coupledTotalLagNewtonRaphsonBeamCoeffs"
{
    E E [1 -1 -2 0 0 0 0] 200e6;
    G G [1 -1 -2 0 0 0 0] 100e6; // nu=0

    // plasticityModel linearElasticMisesPlastic;
    // linearElasticMisesPlasticCoeffs
    // {
    //     sigmaY0 sigmaY0 [1 -1 -2 0 0 0 0] 1.65e9; //1.65e6;
    //     HP EP [1 -1 -2 0 0 0 0] 0;

    //     elPredTol 1e-6;

    //     writeFaceIDs 1(0);
    // }
    
    startPatchName left;
    endPatchName right;

    nCorrectors 1000;
    convergenceTol 1e-12;

    debug no;
    updatedLagrangian no;
}

// ************************************************************************* //
