/*--------------------------------*- C++ -*----------------------------------*\
| =========                 |                                                 |
| \\      /  F ield         | foam-extend: Open Source CFD                    |
|  \\    /   O peration     | Version:     4.0                                |
|   \\  /    A nd           | Web:         http://www.foam-extend.org         |
|    \\/     M anipulation  |                                                 |
\*---------------------------------------------------------------------------*/
FoamFile
{
    version     2.0;
    format      ascii;
    class       dictionary;
    location    "constant";
    object      beamProperties;
}
// * * * * * * * * * * * * * * * * * * * * * * * * * * * * * * * * * * * * * //

beamModel coupledTotalLagNewtonRaphsonBeam;
// beamModel coupledTotalLagCurvedBeam;
// beamModel coupledTotalLagIncrBeam;
// beamModel coupledTotalLagBeam;
// beamModel coupledUpdatedLagBeam;

R R [0 1 0 0 0 0 0] 0.1; //0.05;

"coupledUpdatedLagBeamCoeffs|coupledTotalLagNewtonRaphsonBeamCoeffs|coupledTotalLagCurvedBeamCoeffs"
{
    E E [1 -1 -2 0 0 0 0] 200e6;
    G G [1 -1 -2 0 0 0 0] 100e6; // nu=0
    
    startPatchName left;
    endPatchName right;

    nCorrectors 20;
    convergenceTol 1e-10;

    debug yes;
    updatedLagrangian no;
}

// ************************************************************************* //
