/*--------------------------------*- C++ -*----------------------------------* \
| =========                 |                                                 |
| \\      /  F ield         | foam-extend: Open Source CFD                    |
|  \\    /   O peration     | Version:     4.0                                |
|   \\  /    A nd           | Web:         http://www.foam-extend.org         |
|    \\/     M anipulation  |                                                 |
\*---------------------------------------------------------------------------*/
FoamFile
{
    version     2.0;
    format      ascii;
    class       volVectorField;
    object      Theta;
}
// * * * * * * * * * * * * * * * * * * * * * * * * * * * * * * * * * * * * * //

dimensions      [0 0 0 0 0 0 0];

internalField   uniform (0 0 0);

boundaryField
{
    right
    {
        type momentBeamRotationNR;
        value uniform (0 0 0);
        momentSeries
        {
            fileName        "$FOAM_CASE/constant/timeVsMoment";
            outOfBounds     clamp;
        }
        
        // type fixedValue;
        // value uniform (0 0 0);
    }
    
    left
    {
        // type extrapolatedBeamRotation;
        // value uniform (0 0 0);
        
        type fixedValue;
        value uniform (0 0 0);
    }
    
    beam
    {
        type empty;
    }
}


// ************************************************************************* //
