/*--------------------------------*- C++ -*----------------------------------*\
| =========                 |                                                 |
| \\      /  F ield         | foam-extend: Open Source CFD                    |
|  \\    /   O peration     | Version:     4.0                                |
|   \\  /    A nd           | Web:         http://www.foam-extend.org         |
|    \\/     M anipulation  |                                                 |
\*---------------------------------------------------------------------------*/
FoamFile
{
    version     2.0;
    format      ascii;
    class       dictionary;
    object      fvSolution;
}
// * * * * * * * * * * * * * * * * * * * * * * * * * * * * * * * * * * * * * //

solvers
{
    "DWDTheta|WTheta"
    {
        solver Eigen; //BlockTDM;
    };
}

relaxationFactors
{
    euqations
    {
        // U 0.99;
    }
    fields
    {
        GammaP 0.999;
        KP 0.999;        
    }
}


// ************************************************************************* //
