/*--------------------------------*- C++ -*----------------------------------*\
| =========                 |                                                 |
| \\      /  F ield         | foam-extend: Open Source CFD                    |
|  \\    /   O peration     | Version:     4.0                                |
|   \\  /    A nd           | Web:         http://www.foam-extend.org         |
|    \\/     M anipulation  |                                                 |
\*---------------------------------------------------------------------------*/
FoamFile
{
    version     2.0;
    format      ascii;
    class       dictionary;
    location    "constant";
    object      beamsBunchingProperties;
}
// * * * * * * * * * * * * * * * * * * * * * * * * * * * * * * * * * * * * * //

nBeams 2;

gBar gBar [0 1 0 0 0 0 0] 0.001;
epsilon epsilon [1 -1 -2 0 0 0 0] 46845.28; // Dim of E

gapRelaxationFactor 1;
forceRelaxationFactor 0.01;

convergenceTol 1e-6;

nCorrectors 2000;

implicit false;

residualFile yes;

// ************************************************************************* //
