/*--------------------------------*- C++ -*----------------------------------*\
| =========                 |                                                 |
| \\      /  F ield         | foam-extend: Open Source CFD                    |
|  \\    /   O peration     | Version:     4.0                                |
|   \\  /    A nd           | Web:         http://www.foam-extend.org         |
|    \\/     M anipulation  |                                                 |
\*---------------------------------------------------------------------------*/
FoamFile
{
    version     2.0;
    format      ascii;
    class       dictionary;
    object      controlDict;
}
// * * * * * * * * * * * * * * * * * * * * * * * * * * * * * * * * * * * * * //

application     beamFoam;

startFrom       latestTime;

startTime       0;

stopAt          endTime;

endTime         1;

deltaT          0.005;

writeControl    timeStep;

writeInterval   1;

purgeWrite      0;

writeFormat     ascii;

writePrecision  6;

writeCompression uncompressed;

timeFormat      general;

timePrecision   6;

runTimeModifiable yes;

functions
{
   // writeBeamData
   // {
   //     type writeBeamData;
   //     functionObjectLibs ("libwriteBeamData.so");
   //     startPatchName left;
   //     endPatchName right;
   // }
   
   setEndPointTwisting
   {
       type setEndPointTwisting;
       functionObjectLibs ("libsetEndPointTwisting.so");
       startPatchName left;
       endPatchName right;
       angle 720; //1440; //720; //360;
   }
  
   // setStartPointTwisting
   // {
   //     type setStartPointTwisting;
   //     functionObjectLibs ("libsetStartPointTwisting.so");
   //     startPatchName left;
   //     endPatchName right;
   //     angle 360; //1440; //720; //360;
   // }
   
   // setEndPointTwisting-0
   // {
   //     type setEndPointTwisting;
   //     functionObjectLibs ("libsetEndPointTwisting.so");
   //     startPatchName left;
   //     endPatchName right;

   //     region beam-0;
       
   //     angle 360;
   // }

   // setEndPointTwisting-1
   // {
   //     type setEndPointTwisting;
   //     functionObjectLibs ("libsetEndPointTwisting.so");
   //     startPatchName left;
   //     endPatchName right;

   //     region beam-1;

   //     angle 360;
   // }
}

// ************************************************************************* //
