/*--------------------------------*- C++ -*----------------------------------* \
| =========                 |                                                 |
| \\      /  F ield         | foam-extend: Open Source CFD                    |
|  \\    /   O peration     | Version:     4.0                                |
|   \\  /    A nd           | Web:         http://www.foam-extend.org         |
|    \\/     M anipulation  |                                                 |
\*---------------------------------------------------------------------------*/
FoamFile
{
    version     2.0;
    format      ascii;
    class       volVectorField;
    object      DW;
}
// * * * * * * * * * * * * * * * * * * * * * * * * * * * * * * * * * * * * * //

dimensions      [0 1 0 0 0 0 0];

internalField   uniform (0 0 0);

boundaryField
{
    left_0
    {
        type fixedValue;
        value uniform (0 0 0);
    }
    
    left_1
    {
	type fixedValue;
	value uniform (0 0 0);
	
	//   type forceBeamDisplacementNR;
	//   forceSeries
           //   {
               //   fileName        "$FOAM_CASE/constant/timeVsForce";
               //   outOfBounds     clamp;
           //   }
	   //   value uniform (0 0 0);
	   
       	//   type fixedDisplacement;
	//   displacementSeries
           //   {
               //   fileName        "$FOAM_CASE/constant/timeVsDispLeft";
               //   outOfBounds     clamp;
           //   }
	   //   value uniform (0 0 0);
        
    }
    

    right_0
    {
        type fixedValue;
        value uniform (0 0 0);
    }
    
    right_1
    {
	type fixedValue;
	value uniform (0 0 0);
	
	//   type forceBeamDisplacementNR;
	//   forceSeries
           //   {
               //   fileName        "$FOAM_CASE/constant/timeVsForce";
               //   outOfBounds     clamp;
           //   }
	   //   value uniform (0 0 0);
	   
       	//   type fixedDisplacement;
	//   displacementSeries
           //   {
               //   fileName        "$FOAM_CASE/constant/timeVsDispLeft";
               //   outOfBounds     clamp;
           //   }
	   //   value uniform (0 0 0);
        
    }
    
    // right
    // {
    //     type axialForceTransverseDisplacement;
    //     refDisp uniform ( 0 0 0 );
    //     value uniform (0 0 0);
    //     axialForce uniform 38.4;
    // }

    beam
    {
        type empty;
    }
}


// ************************************************************************* //
