/*--------------------------------*- C++-*----------------------------------*\
| =========                 |                                                 |
| \\      /  F ield         | OpenFOAM: The Open Source CFD Toolbox           |
|  \\    /   O peration     | Version:  Cross-version compatible waves2Foam   |
|   \\  /    A nd           | Web:      http://www.OpenFOAM.org               |
|    \\/     M anipulation  |                                                 |
\*---------------------------------------------------------------------------*/
FoamFile
{
    version     2.0;
    format      ascii;
    class       dictionary;
    object      fenton4FoamCoeffs;
}
// * * * * * * * * * * * * * * * * * * * * * * * * * * * * * * * * * * * * * //

nModes    10;
depth   depth  [0 0 0 0 0 0 0]  0.451988E+00;
period  period [0 0 0 0 0 0 0]  0.941700E+01;
uBar    uBar   [0 0 0 0 0 0 0]  0.671458E+00;

bCoeffs nonuniform List<scalar>   10
(
     0.697285E-01
     0.138597E-01
     0.284118E-02
     0.540574E-03
     0.875260E-04
     0.987653E-05
    -0.981666E-07
    -0.453063E-06
    -0.157220E-06
    -0.317768E-07
);


aCoeffs nonuniform List<scalar>   10
(
     0.462226E-01
     0.179796E-01
     0.584885E-02
     0.183630E-02
     0.585410E-03
     0.192692E-03
     0.657034E-04
     0.233848E-04
     0.935783E-05
     0.602692E-05
);

