/*--------------------------------*- C++ -*----------------------------------*\
| =========                 |                                                 |
| \\      /  F ield         | foam-extend: Open Source CFD                    |
|  \\    /   O peration     | Version:     4.0                                |
|   \\  /    A nd           | Web:         http://www.foam-extend.org         |
|    \\/     M anipulation  |                                                 |
\*---------------------------------------------------------------------------*/
FoamFile
{
    version     2.0;
    format      ascii;
    class       dictionary;
    object      fvSolution;
}
// * * * * * * * * * * * * * * * * * * * * * * * * * * * * * * * * * * * * * //

solvers
{
    "DWDTheta|WTheta"
    {
        solver Eigen; //BlockTDM; //BiCGStab;
        // preconditioner  Cholesky;
        // tolerance       1e-12;
        // relTol          0;
        // minIter         1;
        // maxIter         1000;
    };
}

relaxationFactors
{
    euqations
    {
        // U 0.99;
    }
    fields
    {
        GammaP 0.99;
        KP 0.99;
    }
}


// ************************************************************************* //
