/*--------------------------------*- C++ -*----------------------------------* \
| =========                 |                                                 |
| \\      /  F ield         | foam-extend: Open Source CFD                    |
|  \\    /   O peration     | Version:     4.0                                |
|   \\  /    A nd           | Web:         http://www.foam-extend.org         |
|    \\/     M anipulation  |                                                 |
\*---------------------------------------------------------------------------*/
FoamFile
{
    version     2.0;
    format      ascii;
    class       volVectorField;
    object      DW;
}
// * * * * * * * * * * * * * * * * * * * * * * * * * * * * * * * * * * * * * //

dimensions      [0 1 0 0 0 0 0];

internalField   uniform (0 0 0);

boundaryField
{
    // left
    // {
    //     type axialForceTransverseDisplacementNR
    //     value uniform (0 0 0);
    //     // refDisp uniform (0 0 0);
    //     axialForce uniform 10000;
        
    //     refDispSeries
    //     {
    //         fileName "$FOAM_CASE/constant/timeVsRefDisplacement";
    //         outOfBounds clamp;
    //     }
    // }

    left
    {
        type forceBeamDisplacementNR;
        forceSeries
        {
            fileName        "$FOAM_CASE/constant/timeVsForce";
            outOfBounds     clamp;
        }
        value uniform (0 0 0);
    }
    
    right
    {
        type fixedDisplacement;
        value uniform (0 0 0);
        
        displacementSeries
        {
            fileName        "$FOAM_CASE/constant/timeVsDisplacement";
            outOfBounds     clamp;
        }
    }
    
    // right
    // {
    //     type axialForceTransverseDisplacementNR
    //     value uniform (0 0 0);
    //     // refDisp uniform (0 0 0);
    //     axialForce uniform 0;

    //     refDispSeries
    //     {
    //         fileName "$FOAM_CASE/constant/timeVsRefDisplacement";
    //         outOfBounds clamp;
    //     }
    // }

    beam
    {
        type empty;
    }
}


// ************************************************************************* //
