/*--------------------------------*- C++ -*----------------------------------*\
| =========                 |                                                 |
| \\      /  F ield         | foam-extend: Open Source CFD                    |
|  \\    /   O peration     | Version:     4.0                                |
|   \\  /    A nd           | Web:         http://www.foam-extend.org         |
|    \\/     M anipulation  |                                                 |
\*---------------------------------------------------------------------------*/
FoamFile
{
    version     2.0;
    format      ascii;
    class       dictionary;
    location    "constant";
    object      beamsBunchingProperties;
}
// * * * * * * * * * * * * * * * * * * * * * * * * * * * * * * * * * * * * * //

normalContactModel regularizedStandardPenalty;
regularizedStandardPenaltyNormalModelDict
{
    epsilon 15000; // Dim of E
    gBar 1e-3;//0.001;
}

frictionContactModel regularizedStandardPenalty;
regularizedStandardPenaltyFrictionModelDict
{
    epsilon 5000;
    gBar 1e-4; //1e-5;
    frictionCoeff 0.3;
}

// ************************************************************************* //
