/*--------------------------------*- C++ -*----------------------------------*\
| =========                 |                                                 |
| \\      /  F ield         | foam-extend: Open Source CFD                    |
|  \\    /   O peration     | Version:     4.0                                |
|   \\  /    A nd           | Web:         http://www.foam-extend.org         |
|    \\/     M anipulation  |                                                 |
\*---------------------------------------------------------------------------*/
FoamFile
{
    version     2.0;
    format      ascii;
    class       dictionary;
    location    "constant";
    object      beamProperties;
}
// * * * * * * * * * * * * * * * * * * * * * * * * * * * * * * * * * * * * * //

beamModel coupledTotalLagNewtonRaphsonBeam;

R R [0 1 0 0 0 0 0] 0.65; // mm;
L L [0 1 0 0 0 0 0] 4000; // mm
nSegments 3000;
nBeams 1;

"coupledTotalLagNewtonRaphsonBeamCoeffs"
{
    E E [1 -1 -2 0 0 0 0] 200e6;
    G G [1 -1 -2 0 0 0 0] 100e6; // nu=0

    startPatchName left;
    endPatchName right;

    nCorrectors 200;
    convergenceTol 1e-9;

    debug no;
    updatedLagrangian no;
}

// ************************************************************************* //
