/*--------------------------------*- C++ -*----------------------------------*\
| =========                 |                                                 |
| \\      /  F ield         | foam-extend: Open Source CFD                    |
|  \\    /   O peration     | Version:     4.0                                |
|   \\  /    A nd           | Web:         http://www.foam-extend.org         |
|    \\/     M anipulation  |                                                 |
\*---------------------------------------------------------------------------*/
FoamFile
{
    version     2.0;
    format      ascii;
    class       dictionary;
    location    "constant";
    object      beamsBunchingProperties;
}
// * * * * * * * * * * * * * * * * * * * * * * * * * * * * * * * * * * * * * //

normalContactModel regularizedStandardPenalty;
regularizedStandardPenaltyNormalModelDict
{
    epsilon 400000; // Dim of E
    gBar 0.001;
}

// frictionContactModel standardPenalty;
// standardPenaltyFrictionModelDict
// {
//     epsilon 15000;
//     frictionCoeff 10000000000; //0.5;
//     gCoeff 0.2;
// }

frictionContactModel stabilisedPenalty;
stabilisedPenaltyFrictionModelDict
{
    epsilon 100000;
    frictionCoeff 0.5; //0.5; //1e20; //0.5;
    gCoeff 0.2;
}


// ************************************************************************* //
