/*--------------------------------*- C++ -*----------------------------------*\
| =========                 |                                                 |
| \\      /  F ield         | foam-extend: Open Source CFD                    |
|  \\    /   O peration     | Version:     4.0                                |
|   \\  /    A nd           | Web:         http://www.foam-extend.org         |
|    \\/     M anipulation  |                                                 |
\*---------------------------------------------------------------------------*/
FoamFile
{
    version     2.0;
    format      ascii;
    class       dictionary;
    object      controlDict;
}
// * * * * * * * * * * * * * * * * * * * * * * * * * * * * * * * * * * * * * //

application     beamFoam;

startFrom       startTime;

startTime       0;

stopAt          endTime;

endTime         1; //1;

deltaT          0.1; //0.025;

writeControl    timeStep;

writeInterval   1;

purgeWrite      0;

writeFormat     ascii;

writePrecision  6;

writeCompression uncompressed;

timeFormat      general;

timePrecision   6;

runTimeModifiable yes;

functions
{
   // setEndPointTwisting
   // {
   //     type setEndPointTwisting;
   //     functionObjectLibs ("libsetEndPointTwisting.so");
   //     startPatchName left;
   //     endPatchName right;
   //     angle 360;
   // }
  
   // setCrossSectionRotation
   // {
   //     type setCrossSectionRotation;
   //     functionObjectLibs ("libsetCrossSectionRotation.so");
   //     startPatchName left;
   //     endPatchName right;
   //     angle 360;
   // }
}

// ************************************************************************* //
